Circuit: * C:\Users\Diego\Documents\BIO\5° Bio\SAPS\Proyecto de diseño y desarrollo\SallenKey_PasaBanda.asc

Direct Newton iteration for .op point succeeded.

Date: Mon Jun 08 03:56:39 2020
Total elapsed time: 0.843 seconds.

tnom = 27
temp = 27
method = trap
totiter = 3
traniter = 0
tranpoints = 0
accept = 0
rejected = 0
matrix size = 10
fillins = 2
solver = Normal
Matrix Compiler1:      25 opcodes
Matrix Compiler2: 854 bytes object code size
